
     RDKit          3D

 22 24  0  0  0  0  0  0  0  0999 V2000
   23.7460    2.8110   32.5190 C   0  0  0  0  0  0  0  0  0  0  0  0
   22.9020    1.6400   32.5190 C   0  0  0  0  0  0  0  0  0  0  0  0
   22.3820    1.5490   31.2170 C   0  0  0  0  0  0  0  0  0  0  0  0
   23.6600    3.3140   31.2070 C   0  0  0  0  0  0  0  0  0  0  0  0
   22.8540    2.5450   30.4870 O   0  0  0  0  0  0  0  0  0  0  0  0
   24.3260    4.4470   30.7240 O   0  0  0  0  0  0  0  0  0  0  0  0
   24.5870    3.4150   33.6790 C   0  0  0  0  0  0  0  0  0  0  0  0
   24.0320    3.6100   34.9420 C   0  0  0  0  0  0  0  0  0  0  0  0
   24.8070    4.1670   35.9760 C   0  0  0  0  0  0  0  0  0  0  0  0
   26.1320    4.5330   35.7430 C   0  0  0  0  0  0  0  0  0  0  0  0
   26.6860    4.3430   34.4790 C   0  0  0  0  0  0  0  0  0  0  0  0
   25.9120    3.7850   33.4490 C   0  0  0  0  0  0  0  0  0  0  0  0
   22.5800    0.6810   33.6390 C   0  0  0  0  0  0  0  0  0  0  0  0
   23.5450    0.2230   34.5310 C   0  0  0  0  0  0  0  0  0  0  0  0
   23.1800   -0.6700   35.5340 C   0  0  0  0  0  0  0  0  0  0  0  0
   21.8670   -1.0980   35.6390 C   0  0  0  0  0  0  0  0  0  0  0  0
   20.9120   -0.6390   34.7400 C   0  0  0  0  0  0  0  0  0  0  0  0
   21.2750    0.2430   33.7390 C   0  0  0  0  0  0  0  0  0  0  0  0
   21.3580   -2.2370   36.9030 S   0  0  2  0  0  0  0  0  0  0  0  0
   21.5830   -3.6550   36.4360 O   0  0  0  0  0  0  0  0  0  0  0  0
   19.8880   -2.0150   37.2100 O   0  0  0  0  0  0  0  0  0  0  0  0
   22.3180   -1.9930   38.3830 C   0  0  0  0  0  0  0  0  0  0  0  0
  2  1  2  0
  3  2  1  0
  4  1  1  0
  5  4  1  0
  5  3  1  0
  6  4  2  0
  7  1  1  0
  8  7  2  0
  9  8  1  0
 10  9  2  0
 11 10  1  0
 12 11  2  0
 12  7  1  0
 13  2  1  0
 14 13  1  0
 15 14  2  0
 16 15  1  0
 17 16  2  0
 18 17  1  0
 18 13  2  0
 19 16  1  0
 20 19  2  0
 21 19  2  0
 19 22  1  1
M  END
